# generated using pymatgen
data_Ca
_symmetry_space_group_name_H-M   'P 1'
_cell_length_a   3.87741530
_cell_length_b   6.42204483
_cell_length_c   6.79358534
_cell_angle_alpha   90.00000000
_cell_angle_beta   90.00000000
_cell_angle_gamma   90.00000000
_symmetry_Int_Tables_number   1
_chemical_formula_structural   Ca
_chemical_formula_sum   Ca4
_cell_volume   169.16662616
_cell_formula_units_Z   4
loop_
 _symmetry_equiv_pos_site_id
 _symmetry_equiv_pos_as_xyz
  1  'x, y, z'
loop_
 _atom_site_type_symbol
 _atom_site_label
 _atom_site_symmetry_multiplicity
 _atom_site_fract_x
 _atom_site_fract_y
 _atom_site_fract_z
 _atom_site_occupancy
  Ca  Ca0  1  0.00196400  0.75000000  0.15594006  1
  Ca  Ca1  1  0.49803600  0.75000000  0.65594006  1
  Ca  Ca2  1  0.99803600  0.25000000  0.84405994  1
  Ca  Ca3  1  0.50196400  0.25000000  0.34405994  1
