# generated using pymatgen
data_I
_symmetry_space_group_name_H-M   'P 1'
_cell_length_a   4.55562169
_cell_length_b   4.46231765
_cell_length_c   9.86338786
_cell_angle_alpha   90.00000000
_cell_angle_beta   90.00000000
_cell_angle_gamma   120.69411403
_symmetry_Int_Tables_number   1
_chemical_formula_structural   I
_chemical_formula_sum   I4
_cell_volume   172.41878335
_cell_formula_units_Z   4
loop_
 _symmetry_equiv_pos_site_id
 _symmetry_equiv_pos_as_xyz
  1  'x, y, z'
loop_
 _atom_site_type_symbol
 _atom_site_label
 _atom_site_symmetry_multiplicity
 _atom_site_fract_x
 _atom_site_fract_y
 _atom_site_fract_z
 _atom_site_occupancy
  I  I0  1  0.844626  0.000000  0.379606  1
  I  I1  1  0.155374  -0.000000  0.620394  1
  I  I2  1  0.655374  -0.000000  0.879606  1
  I  I3  1  0.344626  0.000000  0.120394  1
