# generated using pymatgen
data_Mn
_symmetry_space_group_name_H-M   'P 1'
_cell_length_a   2.50997117
_cell_length_b   3.32904132
_cell_length_c   3.32904132
_cell_angle_alpha   81.82976467
_cell_angle_beta   67.85319134
_cell_angle_gamma   67.85319134
_symmetry_Int_Tables_number   1
_chemical_formula_structural   Mn
_chemical_formula_sum   Mn2
_cell_volume   23.86361939
_cell_formula_units_Z   2
loop_
 _symmetry_equiv_pos_site_id
 _symmetry_equiv_pos_as_xyz
  1  'x, y, z'
loop_
 _atom_site_type_symbol
 _atom_site_label
 _atom_site_symmetry_multiplicity
 _atom_site_fract_x
 _atom_site_fract_y
 _atom_site_fract_z
 _atom_site_occupancy
  Mn  Mn0  1  0.250000  0.500000  0.500000  1
  Mn  Mn1  1  -0.000000  -0.000000  -0.000000  1
