# generated using pymatgen
data_Ac
_symmetry_space_group_name_H-M   'P 1'
_cell_length_a   3.98603275
_cell_length_b   3.98603301
_cell_length_c   9.91724939
_cell_angle_alpha   78.40662838
_cell_angle_beta   101.59337400
_cell_angle_gamma   119.99999410
_symmetry_Int_Tables_number   1
_chemical_formula_structural   Ac
_chemical_formula_sum   Ac3
_cell_volume   132.73451363
_cell_formula_units_Z   3
loop_
 _symmetry_equiv_pos_site_id
 _symmetry_equiv_pos_as_xyz
  1  'x, y, z'
loop_
 _atom_site_type_symbol
 _atom_site_label
 _atom_site_symmetry_multiplicity
 _atom_site_fract_x
 _atom_site_fract_y
 _atom_site_fract_z
 _atom_site_occupancy
  Ac  Ac0  1  0.00000000  0.00000000  -0.00000000  1
  Ac  Ac1  1  0.77737587  0.22262213  0.33213061  1
  Ac  Ac2  1  0.22262313  0.77737687  0.66786939  1
