# generated using pymatgen
data_Ga
_symmetry_space_group_name_H-M   'P 1'
_cell_length_a   4.38727563
_cell_length_b   4.38727504
_cell_length_c   4.55829087
_cell_angle_alpha   90.00000000
_cell_angle_beta   90.00000000
_cell_angle_gamma   119.66015205
_symmetry_Int_Tables_number   1
_chemical_formula_structural   Ga
_chemical_formula_sum   Ga4
_cell_volume   76.24292334
_cell_formula_units_Z   4
loop_
 _symmetry_equiv_pos_site_id
 _symmetry_equiv_pos_as_xyz
  1  'x, y, z'
loop_
 _atom_site_type_symbol
 _atom_site_label
 _atom_site_symmetry_multiplicity
 _atom_site_fract_x
 _atom_site_fract_y
 _atom_site_fract_z
 _atom_site_occupancy
  Ga  Ga0  1  0.15593286  0.84406714  0.91518819  1
  Ga  Ga1  1  0.34406714  0.65593286  0.41518819  1
  Ga  Ga2  1  0.84406714  0.15593286  0.08481181  1
  Ga  Ga3  1  0.65593286  0.34406714  0.58481181  1
