# generated using pymatgen
data_H2
_symmetry_space_group_name_H-M   'P 1'
_cell_length_a   7.18644365
_cell_length_b   7.20804099
_cell_length_c   7.17674181
_cell_angle_alpha   90.00000000
_cell_angle_beta   90.00000000
_cell_angle_gamma   90.00000000
_symmetry_Int_Tables_number   1
_chemical_formula_structural   H2
_chemical_formula_sum   H8
_cell_volume   371.75652045
_cell_formula_units_Z   4
loop_
 _symmetry_equiv_pos_site_id
 _symmetry_equiv_pos_as_xyz
  1  'x, y, z'
loop_
 _atom_site_type_symbol
 _atom_site_label
 _atom_site_symmetry_multiplicity
 _atom_site_fract_x
 _atom_site_fract_y
 _atom_site_fract_z
 _atom_site_occupancy
  H  H0  1  0.72172898  0.64726729  0.36553481  1
  H  H1  1  0.77827102  0.35273271  0.86553481  1
  H  H2  1  0.22172898  0.85273271  0.63446519  1
  H  H3  1  0.27827102  0.14726729  0.13446519  1
  H  H4  1  0.14926297  0.78027905  0.64452001  1
  H  H5  1  0.35073703  0.21972095  0.14452001  1
  H  H6  1  0.64926297  0.71972095  0.35547999  1
  H  H7  1  0.85073703  0.28027905  0.85547999  1
