# generated using pymatgen
data_Ho
_symmetry_space_group_name_H-M   'P 1'
_cell_length_a   3.50834930
_cell_length_b   3.50834930
_cell_length_c   8.58966890
_cell_angle_alpha   78.21621311
_cell_angle_beta   78.21621311
_cell_angle_gamma   60.00003511
_symmetry_Int_Tables_number   1
_chemical_formula_structural   Ho
_chemical_formula_sum   Ho3
_cell_volume   88.97934075
_cell_formula_units_Z   3
loop_
 _symmetry_equiv_pos_site_id
 _symmetry_equiv_pos_as_xyz
  1  'x, y, z'
loop_
 _atom_site_type_symbol
 _atom_site_label
 _atom_site_symmetry_multiplicity
 _atom_site_fract_x
 _atom_site_fract_y
 _atom_site_fract_z
 _atom_site_occupancy
  Ho  Ho0  1  -0.00000000  -0.00000000  -0.00000000  1
  Ho  Ho1  1  0.22202481  0.22202481  0.33392658  1
  Ho  Ho2  1  0.77797519  0.77797519  0.66607342  1
