# generated using pymatgen
data_N2
_symmetry_space_group_name_H-M   'P 1'
_cell_length_a   6.97927964
_cell_length_b   6.97927831
_cell_length_c   6.97927854
_cell_angle_alpha   86.36739162
_cell_angle_beta   86.36738995
_cell_angle_gamma   86.36739522
_symmetry_Int_Tables_number   1
_chemical_formula_structural   N2
_chemical_formula_sum   N16
_cell_volume   337.99670592
_cell_formula_units_Z   8
loop_
 _symmetry_equiv_pos_site_id
 _symmetry_equiv_pos_as_xyz
  1  'x, y, z'
loop_
 _atom_site_type_symbol
 _atom_site_label
 _atom_site_symmetry_multiplicity
 _atom_site_fract_x
 _atom_site_fract_y
 _atom_site_fract_z
 _atom_site_occupancy
  N  N0  1  0.06016781  0.54412135  0.22064254  1
  N  N1  1  0.45587865  0.77935746  0.93983219  1
  N  N2  1  0.22064254  0.06016781  0.54412135  1
  N  N3  1  0.45698711  0.45698711  0.45698711  1
  N  N4  1  0.04412135  0.56016781  0.72064254  1
  N  N5  1  0.27935746  0.95587865  0.43983219  1
  N  N6  1  0.77935746  0.93983219  0.45587865  1
  N  N7  1  0.54301289  0.54301289  0.54301289  1
  N  N8  1  0.95587865  0.43983219  0.27935746  1
  N  N9  1  0.04301289  0.04301289  0.04301289  1
  N  N10  1  0.93983219  0.45587865  0.77935746  1
  N  N11  1  0.95698711  0.95698711  0.95698711  1
  N  N12  1  0.54412135  0.22064254  0.06016781  1
  N  N13  1  0.43983219  0.27935746  0.95587865  1
  N  N14  1  0.72064254  0.04412135  0.56016781  1
  N  N15  1  0.56016781  0.72064254  0.04412135  1
