# generated using pymatgen
data_Ne
_symmetry_space_group_name_H-M   'P 1'
_cell_length_a   2.86924192
_cell_length_b   2.86924275
_cell_length_c   2.86924317
_cell_angle_alpha   60.00000431
_cell_angle_beta   59.99999479
_cell_angle_gamma   60.00000081
_symmetry_Int_Tables_number   1
_chemical_formula_structural   Ne
_chemical_formula_sum   Ne1
_cell_volume   16.70270527
_cell_formula_units_Z   1
loop_
 _symmetry_equiv_pos_site_id
 _symmetry_equiv_pos_as_xyz
  1  'x, y, z'
loop_
 _atom_site_type_symbol
 _atom_site_label
 _atom_site_symmetry_multiplicity
 _atom_site_fract_x
 _atom_site_fract_y
 _atom_site_fract_z
 _atom_site_occupancy
  Ne  Ne0  1  -0.00000000  -0.00000000  0.00000000  1
