# generated using pymatgen
data_Np
_symmetry_space_group_name_H-M   'P 1'
_cell_length_a   4.54657574
_cell_length_b   4.68008563
_cell_length_c   6.43174884
_cell_angle_alpha   90.00000000
_cell_angle_beta   90.00000000
_cell_angle_gamma   90.00000000
_symmetry_Int_Tables_number   1
_chemical_formula_structural   Np
_chemical_formula_sum   Np8
_cell_volume   136.85709160
_cell_formula_units_Z   8
loop_
 _symmetry_equiv_pos_site_id
 _symmetry_equiv_pos_as_xyz
  1  'x, y, z'
loop_
 _atom_site_type_symbol
 _atom_site_label
 _atom_site_symmetry_multiplicity
 _atom_site_fract_x
 _atom_site_fract_y
 _atom_site_fract_z
 _atom_site_occupancy
  Np  Np0  1  0.25000000  0.21297922  0.04305189  1
  Np  Np1  1  0.75000000  0.78702078  0.95694811  1
  Np  Np2  1  0.75000000  0.71297922  0.45694811  1
  Np  Np3  1  0.25000000  0.28702078  0.54305189  1
  Np  Np4  1  0.25000000  0.85634758  0.32065848  1
  Np  Np5  1  0.75000000  0.14365242  0.67934152  1
  Np  Np6  1  0.75000000  0.35634758  0.17934152  1
  Np  Np7  1  0.25000000  0.64365242  0.82065848  1
