# generated using pymatgen
data_P
_symmetry_space_group_name_H-M   'P 1'
_cell_length_a   3.28784531
_cell_length_b   4.52526930
_cell_length_c   5.72624007
_cell_angle_alpha   90.00000000
_cell_angle_beta   106.68356817
_cell_angle_gamma   90.00000000
_symmetry_Int_Tables_number   1
_chemical_formula_structural   P
_chemical_formula_sum   P4
_cell_volume   81.61081903
_cell_formula_units_Z   4
loop_
 _symmetry_equiv_pos_site_id
 _symmetry_equiv_pos_as_xyz
  1  'x, y, z'
loop_
 _atom_site_type_symbol
 _atom_site_label
 _atom_site_symmetry_multiplicity
 _atom_site_fract_x
 _atom_site_fract_y
 _atom_site_fract_z
 _atom_site_occupancy
  P  P0  1  0.40488162  0.91135284  0.80976524  1
  P  P1  1  0.59511838  0.08864716  0.19023476  1
  P  P2  1  0.09511838  0.41135284  0.19023476  1
  P  P3  1  0.90488162  0.58864716  0.80976524  1
