# generated using pymatgen
data_S
_symmetry_space_group_name_H-M   'P 1'
_cell_length_a   8.35708790
_cell_length_b   8.35708798
_cell_length_c   13.43775498
_cell_angle_alpha   104.33330148
_cell_angle_beta   104.33330099
_cell_angle_gamma   101.76311401
_symmetry_Int_Tables_number   1
_chemical_formula_structural   S
_chemical_formula_sum   S32
_cell_volume   845.11125287
_cell_formula_units_Z   32
loop_
 _symmetry_equiv_pos_site_id
 _symmetry_equiv_pos_as_xyz
  1  'x, y, z'
loop_
 _atom_site_type_symbol
 _atom_site_label
 _atom_site_symmetry_multiplicity
 _atom_site_fract_x
 _atom_site_fract_y
 _atom_site_fract_z
 _atom_site_occupancy
  S  S0  1  0.14398681  0.04836185  0.90387459  1
  S  S1  1  0.14448826  0.74011222  0.59612541  1
  S  S2  1  0.95163815  0.85601319  0.59612541  1
  S  S3  1  0.25988778  0.85551174  0.90387459  1
  S  S4  1  0.85601319  0.95163815  0.09612541  1
  S  S5  1  0.85551174  0.25988778  0.40387459  1
  S  S6  1  0.04836185  0.14398681  0.40387459  1
  S  S7  1  0.74011222  0.14448826  0.09612541  1
  S  S8  1  0.31365950  0.27585667  0.00873722  1
  S  S9  1  0.26711845  0.80492327  0.49126278  1
  S  S10  1  0.72414333  0.68634050  0.49126278  1
  S  S11  1  0.19507673  0.73288155  0.00873722  1
  S  S12  1  0.68634050  0.72414333  0.99126278  1
  S  S13  1  0.73288155  0.19507673  0.50873722  1
  S  S14  1  0.27585667  0.31365950  0.50873722  1
  S  S15  1  0.80492327  0.26711845  0.99126278  1
  S  S16  1  0.26202676  0.32144310  0.15269799  1
  S  S17  1  0.16874511  0.60932777  0.34730201  1
  S  S18  1  0.67855690  0.73797324  0.34730201  1
  S  S19  1  0.39067123  0.83125489  0.15269799  1
  S  S20  1  0.73797324  0.67855690  0.84730201  1
  S  S21  1  0.83125489  0.39067123  0.65269799  1
  S  S22  1  0.32144310  0.26202676  0.65269799  1
  S  S23  1  0.60932777  0.16874511  0.84730201  1
  S  S24  1  0.43374067  0.25077997  0.25867102  1
  S  S25  1  0.99210795  0.67506965  0.24132898  1
  S  S26  1  0.74922003  0.56625933  0.24132898  1
  S  S27  1  0.32493035  0.00789205  0.25867102  1
  S  S28  1  0.56625933  0.74922003  0.74132898  1
  S  S29  1  0.00789205  0.32493035  0.75867102  1
  S  S30  1  0.25077997  0.43374067  0.75867102  1
  S  S31  1  0.67506965  0.99210795  0.74132898  1
