# generated using pymatgen
data_F2
_symmetry_space_group_name_H-M   'P 1'
_cell_length_a   2.97763766
_cell_length_b   2.97763662
_cell_length_c   6.63305564
_cell_angle_alpha   85.29410712
_cell_angle_beta   94.70588715
_cell_angle_gamma   116.51970417
_symmetry_Int_Tables_number   1
_chemical_formula_structural   F2
_chemical_formula_sum   F4
_cell_volume   52.37735934
_cell_formula_units_Z   2
loop_
 _symmetry_equiv_pos_site_id
 _symmetry_equiv_pos_as_xyz
  1  'x, y, z'
loop_
 _atom_site_type_symbol
 _atom_site_label
 _atom_site_symmetry_multiplicity
 _atom_site_fract_x
 _atom_site_fract_y
 _atom_site_fract_z
 _atom_site_occupancy
  F  F0  1  0.912392  0.401905  0.597102  1
  F  F1  1  0.401905  0.912392  0.902898  1
  F  F2  1  0.087608  0.598095  0.402898  1
  F  F3  1  0.598095  0.087608  0.097102  1
