# generated using pymatgen
data_F2
_symmetry_space_group_name_H-M   'P 1'
_cell_length_a   3.35096252
_cell_length_b   3.35096252
_cell_length_c   5.82064124
_cell_angle_alpha   69.43907850
_cell_angle_beta   69.43907850
_cell_angle_gamma   57.50070499
_symmetry_Int_Tables_number   1
_chemical_formula_structural   F2
_chemical_formula_sum   F4
_cell_volume   50.50808878
_cell_formula_units_Z   2
loop_
 _symmetry_equiv_pos_site_id
 _symmetry_equiv_pos_as_xyz
  1  'x, y, z'
loop_
 _atom_site_type_symbol
 _atom_site_label
 _atom_site_symmetry_multiplicity
 _atom_site_fract_x
 _atom_site_fract_y
 _atom_site_fract_z
 _atom_site_occupancy
  F  F0  1  0.840593  0.641117  0.291780  1
  F  F1  1  0.358883  0.159407  0.208220  1
  F  F2  1  0.159407  0.358883  0.708220  1
  F  F3  1  0.641117  0.840593  0.791780  1
