# generated using pymatgen
data_O2
_symmetry_space_group_name_H-M   'P 1'
_cell_length_a   5.64894244
_cell_length_b   5.64894244
_cell_length_c   3.40637746
_cell_angle_alpha   68.65323933
_cell_angle_beta   111.34676067
_cell_angle_gamma   83.00652753
_symmetry_Int_Tables_number   1
_chemical_formula_structural   O2
_chemical_formula_sum   O8
_cell_volume   90.15499438
_cell_formula_units_Z   4
loop_
 _symmetry_equiv_pos_site_id
 _symmetry_equiv_pos_as_xyz
  1  'x, y, z'
loop_
 _atom_site_type_symbol
 _atom_site_label
 _atom_site_symmetry_multiplicity
 _atom_site_fract_x
 _atom_site_fract_y
 _atom_site_fract_z
 _atom_site_occupancy
  O  O0  1  0.886061  0.774957  0.464018  1
  O  O1  1  0.774957  0.886061  0.035982  1
  O  O2  1  0.113939  0.225043  0.535982  1
  O  O3  1  0.225043  0.113939  0.964018  1
  O  O4  1  0.246681  0.717711  0.701285  1
  O  O5  1  0.717711  0.246681  0.798715  1
  O  O6  1  0.753319  0.282289  0.298715  1
  O  O7  1  0.282289  0.753319  0.201285  1
