# generated using pymatgen
data_O2
_symmetry_space_group_name_H-M   'P 1'
_cell_length_a   4.93060338
_cell_length_b   5.12218203
_cell_length_c   7.89917663
_cell_angle_alpha   89.37264690
_cell_angle_beta   88.93130505
_cell_angle_gamma   90.12042519
_symmetry_Int_Tables_number   1
_chemical_formula_structural   O2
_chemical_formula_sum   O12
_cell_volume   199.45005559
_cell_formula_units_Z   6
loop_
 _symmetry_equiv_pos_site_id
 _symmetry_equiv_pos_as_xyz
  1  'x, y, z'
loop_
 _atom_site_type_symbol
 _atom_site_label
 _atom_site_symmetry_multiplicity
 _atom_site_fract_x
 _atom_site_fract_y
 _atom_site_fract_z
 _atom_site_occupancy
  O  O0  1  0.577935  0.270459  0.498860  1
  O  O1  1  0.410002  0.718859  0.995694  1
  O  O2  1  0.773285  0.914123  0.243923  1
  O  O3  1  0.228636  0.088185  0.751483  1
  O  O4  1  0.724678  0.415561  0.003756  1
  O  O5  1  0.282875  0.591866  0.500425  1
  O  O6  1  0.916485  0.780711  0.747131  1
  O  O7  1  0.081835  0.223700  0.258352  1
  O  O8  1  0.976354  0.024684  0.750631  1
  O  O9  1  0.024406  0.979308  0.251409  1
  O  O10  1  0.531581  0.516946  0.498427  1
  O  O11  1  0.471927  0.475599  0.999910  1
