# generated using pymatgen
data_O2
_symmetry_space_group_name_H-M   'P 1'
_cell_length_a   4.26251027
_cell_length_b   4.26251027
_cell_length_c   8.98031812
_cell_angle_alpha   90.00000000
_cell_angle_beta   90.00000000
_cell_angle_gamma   90.00000000
_symmetry_Int_Tables_number   1
_chemical_formula_structural   O2
_chemical_formula_sum   O8
_cell_volume   163.16334426
_cell_formula_units_Z   4
loop_
 _symmetry_equiv_pos_site_id
 _symmetry_equiv_pos_as_xyz
  1  'x, y, z'
loop_
 _atom_site_type_symbol
 _atom_site_label
 _atom_site_symmetry_multiplicity
 _atom_site_fract_x
 _atom_site_fract_y
 _atom_site_fract_z
 _atom_site_occupancy
  O  O0  1  0.547471  0.363461  0.529930  1
  O  O1  1  0.452529  0.636539  0.029930  1
  O  O2  1  0.863461  0.952529  0.279930  1
  O  O3  1  0.136539  0.047471  0.779930  1
  O  O4  1  0.636539  0.452529  0.970070  1
  O  O5  1  0.363461  0.547471  0.470070  1
  O  O6  1  0.952529  0.863461  0.720070  1
  O  O7  1  0.047471  0.136539  0.220070  1
