# generated using pymatgen
data_O2
_symmetry_space_group_name_H-M   'P 1'
_cell_length_a   4.50086611
_cell_length_b   6.05038513
_cell_length_c   6.05038513
_cell_angle_alpha   97.98026509
_cell_angle_beta   108.39850193
_cell_angle_gamma   108.39850193
_symmetry_Int_Tables_number   1
_chemical_formula_structural   O2
_chemical_formula_sum   O8
_cell_volume   143.05341281
_cell_formula_units_Z   4
loop_
 _symmetry_equiv_pos_site_id
 _symmetry_equiv_pos_as_xyz
  1  'x, y, z'
loop_
 _atom_site_type_symbol
 _atom_site_label
 _atom_site_symmetry_multiplicity
 _atom_site_fract_x
 _atom_site_fract_y
 _atom_site_fract_z
 _atom_site_occupancy
  O  O0  1  0.393960  0.711206  0.006915  1
  O  O1  1  0.106040  0.993085  0.288794  1
  O  O2  1  0.606040  0.288794  0.993085  1
  O  O3  1  0.893960  0.006915  0.711206  1
  O  O4  1  0.139133  0.598692  0.822027  1
  O  O5  1  0.360867  0.177973  0.401308  1
  O  O6  1  0.860867  0.401308  0.177973  1
  O  O7  1  0.639133  0.822027  0.598692  1
