# generated using pymatgen
data_O2
_symmetry_space_group_name_H-M   'P 1'
_cell_length_a   5.16029563
_cell_length_b   5.24024473
_cell_length_c   5.89021314
_cell_angle_alpha   89.76482947
_cell_angle_beta   89.50319137
_cell_angle_gamma   90.25712913
_symmetry_Int_Tables_number   1
_chemical_formula_structural   O2
_chemical_formula_sum   O10
_cell_volume   159.26954339
_cell_formula_units_Z   5
loop_
 _symmetry_equiv_pos_site_id
 _symmetry_equiv_pos_as_xyz
  1  'x, y, z'
loop_
 _atom_site_type_symbol
 _atom_site_label
 _atom_site_symmetry_multiplicity
 _atom_site_fract_x
 _atom_site_fract_y
 _atom_site_fract_z
 _atom_site_occupancy
  O  O0  1  0.133719  0.500382  0.988550  1
  O  O1  1  0.905118  0.573582  0.980897  1
  O  O2  1  0.625366  0.011911  0.511237  1
  O  O3  1  0.398393  0.932761  0.523596  1
  O  O4  1  0.499018  0.129105  0.014881  1
  O  O5  1  0.572760  0.903818  0.018788  1
  O  O6  1  0.074213  0.585626  0.482834  1
  O  O7  1  0.013547  0.356095  0.486987  1
  O  O8  1  0.389132  0.621601  0.500543  1
  O  O9  1  0.888734  0.885119  0.991685  1
