# generated using pymatgen
data_F2
_symmetry_space_group_name_H-M   'P 1'
_cell_length_a   3.20085253
_cell_length_b   3.20085234
_cell_length_c   7.07852863
_cell_angle_alpha   88.42748685
_cell_angle_beta   91.57251308
_cell_angle_gamma   118.56457515
_symmetry_Int_Tables_number   1
_chemical_formula_structural   F2
_chemical_formula_sum   F4
_cell_volume   63.66273819
_cell_formula_units_Z   2
loop_
 _symmetry_equiv_pos_site_id
 _symmetry_equiv_pos_as_xyz
  1  'x, y, z'
loop_
 _atom_site_type_symbol
 _atom_site_label
 _atom_site_symmetry_multiplicity
 _atom_site_fract_x
 _atom_site_fract_y
 _atom_site_fract_z
 _atom_site_occupancy
  F  F0  1  0.967753  0.409666  0.594773  1
  F  F1  1  0.409666  0.967753  0.905227  1
  F  F2  1  0.032247  0.590334  0.405227  1
  F  F3  1  0.590334  0.032247  0.094773  1
