# generated using pymatgen
data_O2
_symmetry_space_group_name_H-M   'P 1'
_cell_length_a   4.12702650
_cell_length_b   5.55188132
_cell_length_c   5.55188132
_cell_angle_alpha   81.97466668
_cell_angle_beta   107.64178922
_cell_angle_gamma   107.64178922
_symmetry_Int_Tables_number   1
_chemical_formula_structural   O2
_chemical_formula_sum   O8
_cell_volume   115.36510932
_cell_formula_units_Z   4
loop_
 _symmetry_equiv_pos_site_id
 _symmetry_equiv_pos_as_xyz
  1  'x, y, z'
loop_
 _atom_site_type_symbol
 _atom_site_label
 _atom_site_symmetry_multiplicity
 _atom_site_fract_x
 _atom_site_fract_y
 _atom_site_fract_z
 _atom_site_occupancy
  O  O0  1  0.836541  0.189301  0.189301  1
  O  O1  1  0.838570  0.688477  0.248698  1
  O  O2  1  0.159432  0.252819  0.252819  1
  O  O3  1  0.161430  0.751302  0.311524  1
  O  O4  1  0.838570  0.248698  0.688477  1
  O  O5  1  0.840568  0.747181  0.747181  1
  O  O6  1  0.161430  0.311524  0.751302  1
  O  O7  1  0.163459  0.810699  0.810699  1
