# generated using pymatgen
data_O2
_symmetry_space_group_name_H-M   'P 1'
_cell_length_a   4.13101271
_cell_length_b   5.59913991
_cell_length_c   5.59913991
_cell_angle_alpha   79.07548880
_cell_angle_beta   109.33667730
_cell_angle_gamma   109.33667730
_symmetry_Int_Tables_number   1
_chemical_formula_structural   O2
_chemical_formula_sum   O8
_cell_volume   114.84453965
_cell_formula_units_Z   4
loop_
 _symmetry_equiv_pos_site_id
 _symmetry_equiv_pos_as_xyz
  1  'x, y, z'
loop_
 _atom_site_type_symbol
 _atom_site_label
 _atom_site_symmetry_multiplicity
 _atom_site_fract_x
 _atom_site_fract_y
 _atom_site_fract_z
 _atom_site_occupancy
  O  O0  1  0.836798  0.187595  0.187595  1
  O  O1  1  0.836437  0.685879  0.249177  1
  O  O2  1  0.164005  0.253991  0.253991  1
  O  O3  1  0.163563  0.750823  0.314122  1
  O  O4  1  0.836437  0.249177  0.685879  1
  O  O5  1  0.835995  0.746009  0.746009  1
  O  O6  1  0.163563  0.314122  0.750823  1
  O  O7  1  0.163202  0.812405  0.812405  1
