# generated using pymatgen
data_O2
_symmetry_space_group_name_H-M   'P 1'
_cell_length_a   4.32462467
_cell_length_b   4.32462467
_cell_length_c   8.69780195
_cell_angle_alpha   90.00000000
_cell_angle_beta   90.00000000
_cell_angle_gamma   90.00000000
_symmetry_Int_Tables_number   1
_chemical_formula_structural   O2
_chemical_formula_sum   O12
_cell_volume   162.66958450
_cell_formula_units_Z   6
loop_
 _symmetry_equiv_pos_site_id
 _symmetry_equiv_pos_as_xyz
  1  'x, y, z'
loop_
 _atom_site_type_symbol
 _atom_site_label
 _atom_site_symmetry_multiplicity
 _atom_site_fract_x
 _atom_site_fract_y
 _atom_site_fract_z
 _atom_site_occupancy
  O  O0  1  0.581507  0.226032  0.508467  1
  O  O1  1  0.418493  0.773968  0.008467  1
  O  O2  1  0.726032  0.918493  0.258467  1
  O  O3  1  0.273968  0.081507  0.758467  1
  O  O4  1  0.773968  0.418493  0.991533  1
  O  O5  1  0.226032  0.581507  0.491533  1
  O  O6  1  0.918493  0.726032  0.741533  1
  O  O7  1  0.081507  0.273968  0.241533  1
  O  O8  1  0.987166  0.012834  0.750000  1
  O  O9  1  0.012834  0.987166  0.250000  1
  O  O10  1  0.512834  0.512834  0.500000  1
  O  O11  1  0.487166  0.487166  -0.000000  1
