# generated using pymatgen
data_O2
_symmetry_space_group_name_H-M   'P 1'
_cell_length_a   5.56068834
_cell_length_b   5.56068834
_cell_length_c   3.48178178
_cell_angle_alpha   64.03103471
_cell_angle_beta   115.96896529
_cell_angle_gamma   88.12933044
_symmetry_Int_Tables_number   1
_chemical_formula_structural   O2
_chemical_formula_sum   O8
_cell_volume   83.59733149
_cell_formula_units_Z   4
loop_
 _symmetry_equiv_pos_site_id
 _symmetry_equiv_pos_as_xyz
  1  'x, y, z'
loop_
 _atom_site_type_symbol
 _atom_site_label
 _atom_site_symmetry_multiplicity
 _atom_site_fract_x
 _atom_site_fract_y
 _atom_site_fract_z
 _atom_site_occupancy
  O  O0  1  0.901240  0.766442  0.483414  1
  O  O1  1  0.766442  0.901240  0.016586  1
  O  O2  1  0.098760  0.233558  0.516586  1
  O  O3  1  0.233558  0.098760  0.983414  1
  O  O4  1  0.232812  0.718622  0.710934  1
  O  O5  1  0.718622  0.232812  0.789066  1
  O  O6  1  0.767188  0.281378  0.289066  1
  O  O7  1  0.281378  0.767188  0.210934  1
