# generated using pymatgen
data_O2
_symmetry_space_group_name_H-M   'P 1'
_cell_length_a   4.20187496
_cell_length_b   4.48424909
_cell_length_c   8.82056776
_cell_angle_alpha   90.08284408
_cell_angle_beta   89.97779766
_cell_angle_gamma   89.97529806
_symmetry_Int_Tables_number   1
_chemical_formula_structural   O2
_chemical_formula_sum   O12
_cell_volume   166.19917621
_cell_formula_units_Z   6
loop_
 _symmetry_equiv_pos_site_id
 _symmetry_equiv_pos_as_xyz
  1  'x, y, z'
loop_
 _atom_site_type_symbol
 _atom_site_label
 _atom_site_symmetry_multiplicity
 _atom_site_fract_x
 _atom_site_fract_y
 _atom_site_fract_z
 _atom_site_occupancy
  O  O0  1  0.570869  0.216939  0.502917  1
  O  O1  1  0.431013  0.781346  0.001726  1
  O  O2  1  0.728400  0.913968  0.255199  1
  O  O3  1  0.265170  0.090711  0.756910  1
  O  O4  1  0.769615  0.413152  0.994597  1
  O  O5  1  0.234921  0.587025  0.494154  1
  O  O6  1  0.932296  0.718564  0.747026  1
  O  O7  1  0.068460  0.280297  0.248138  1
  O  O8  1  0.977350  0.000094  0.752760  1
  O  O9  1  0.018081  0.999484  0.252208  1
  O  O10  1  0.523485  0.498124  0.496808  1
  O  O11  1  0.480342  0.500297  -0.002441  1
