# generated using pymatgen
data_O2
_symmetry_space_group_name_H-M   'P 1'
_cell_length_a   3.31071034
_cell_length_b   3.31070926
_cell_length_c   4.08674181
_cell_angle_alpha   96.25407341
_cell_angle_beta   108.68810681
_cell_angle_gamma   118.03462380
_symmetry_Int_Tables_number   1
_chemical_formula_structural   O2
_chemical_formula_sum   O2
_cell_volume   35.60344257
_cell_formula_units_Z   1
loop_
 _symmetry_equiv_pos_site_id
 _symmetry_equiv_pos_as_xyz
  1  'x, y, z'
loop_
 _atom_site_type_symbol
 _atom_site_label
 _atom_site_symmetry_multiplicity
 _atom_site_fract_x
 _atom_site_fract_y
 _atom_site_fract_z
 _atom_site_occupancy
  O  O0  1  0.127371  0.029579  0.156950  1
  O  O1  1  0.872629  0.970421  0.843050  1
