# generated using pymatgen
data_O2
_symmetry_space_group_name_H-M   'P 1'
_cell_length_a   4.75183345
_cell_length_b   6.05081496
_cell_length_c   6.05081496
_cell_angle_alpha   100.99473320
_cell_angle_beta   108.47787641
_cell_angle_gamma   108.47787641
_symmetry_Int_Tables_number   1
_chemical_formula_structural   O2
_chemical_formula_sum   O8
_cell_volume   148.07490738
_cell_formula_units_Z   4
loop_
 _symmetry_equiv_pos_site_id
 _symmetry_equiv_pos_as_xyz
  1  'x, y, z'
loop_
 _atom_site_type_symbol
 _atom_site_label
 _atom_site_symmetry_multiplicity
 _atom_site_fract_x
 _atom_site_fract_y
 _atom_site_fract_z
 _atom_site_occupancy
  O  O0  1  0.395065  0.713395  0.001952  1
  O  O1  1  0.104935  -0.001952  0.286605  1
  O  O2  1  0.604935  0.286605  -0.001952  1
  O  O3  1  0.895065  0.001952  0.713395  1
  O  O4  1  0.138304  0.595999  0.820834  1
  O  O5  1  0.361696  0.179166  0.404001  1
  O  O6  1  0.861696  0.404001  0.179166  1
  O  O7  1  0.638304  0.820834  0.595999  1
