# generated using pymatgen
data_O2
_symmetry_space_group_name_H-M   'P 1'
_cell_length_a   4.13415682
_cell_length_b   4.13392957
_cell_length_c   8.85160349
_cell_angle_alpha   90.00458969
_cell_angle_beta   89.99628847
_cell_angle_gamma   89.98110569
_symmetry_Int_Tables_number   1
_chemical_formula_structural   O2
_chemical_formula_sum   O8
_cell_volume   151.27666623
_cell_formula_units_Z   4
loop_
 _symmetry_equiv_pos_site_id
 _symmetry_equiv_pos_as_xyz
  1  'x, y, z'
loop_
 _atom_site_type_symbol
 _atom_site_label
 _atom_site_symmetry_multiplicity
 _atom_site_fract_x
 _atom_site_fract_y
 _atom_site_fract_z
 _atom_site_occupancy
  O  O0  1  0.551661  0.363587  0.530529  1
  O  O1  1  0.448328  0.636438  0.030530  1
  O  O2  1  0.863526  0.948339  0.280484  1
  O  O3  1  0.136445  0.051684  0.780497  1
  O  O4  1  0.636469  0.448351  0.969475  1
  O  O5  1  0.363549  0.551623  0.469468  1
  O  O6  1  0.948308  0.863565  0.719515  1
  O  O7  1  0.051714  0.136414  0.219503  1
