# generated using pymatgen
data_O2
_symmetry_space_group_name_H-M   'P 1'
_cell_length_a   5.76985731
_cell_length_b   5.76985731
_cell_length_c   2.99521646
_cell_angle_alpha   75.71664425
_cell_angle_beta   104.28335575
_cell_angle_gamma   89.95083666
_symmetry_Int_Tables_number   1
_chemical_formula_structural   O2
_chemical_formula_sum   O8
_cell_volume   93.44243222
_cell_formula_units_Z   4
loop_
 _symmetry_equiv_pos_site_id
 _symmetry_equiv_pos_as_xyz
  1  'x, y, z'
loop_
 _atom_site_type_symbol
 _atom_site_label
 _atom_site_symmetry_multiplicity
 _atom_site_fract_x
 _atom_site_fract_y
 _atom_site_fract_z
 _atom_site_occupancy
  O  O0  1  0.010953  0.670350  0.174240  1
  O  O1  1  0.670350  0.010953  0.325760  1
  O  O2  1  0.989047  0.329650  0.825760  1
  O  O3  1  0.329650  0.989047  0.674240  1
  O  O4  1  0.489771  0.829548  0.825991  1
  O  O5  1  0.829548  0.489771  0.674009  1
  O  O6  1  0.510229  0.170452  0.174009  1
  O  O7  1  0.170452  0.510229  0.325991  1
