# generated using pymatgen
data_O2
_symmetry_space_group_name_H-M   'P 1'
_cell_length_a   2.34712155
_cell_length_b   2.34705942
_cell_length_c   4.13207237
_cell_angle_alpha   106.48583328
_cell_angle_beta   106.64041988
_cell_angle_gamma   89.82056291
_symmetry_Int_Tables_number   1
_chemical_formula_structural   O2
_chemical_formula_sum   O2
_cell_volume   20.83725026
_cell_formula_units_Z   1
loop_
 _symmetry_equiv_pos_site_id
 _symmetry_equiv_pos_as_xyz
  1  'x, y, z'
loop_
 _atom_site_type_symbol
 _atom_site_label
 _atom_site_symmetry_multiplicity
 _atom_site_fract_x
 _atom_site_fract_y
 _atom_site_fract_z
 _atom_site_occupancy
  O  O0  1  0.903987  0.913535  0.825954  1
  O  O1  1  0.066142  0.074205  0.148590  1
