# generated using pymatgen
data_O2
_symmetry_space_group_name_H-M   'P 1'
_cell_length_a   2.45412506
_cell_length_b   2.45412506
_cell_length_c   7.79387888
_cell_angle_alpha   90.00000000
_cell_angle_beta   90.00000000
_cell_angle_gamma   119.99997959
_symmetry_Int_Tables_number   1
_chemical_formula_structural   O2
_chemical_formula_sum   O4
_cell_volume   40.65161042
_cell_formula_units_Z   2
loop_
 _symmetry_equiv_pos_site_id
 _symmetry_equiv_pos_as_xyz
  1  'x, y, z'
loop_
 _atom_site_type_symbol
 _atom_site_label
 _atom_site_symmetry_multiplicity
 _atom_site_fract_x
 _atom_site_fract_y
 _atom_site_fract_z
 _atom_site_occupancy
  O  O0  1  0.666691  0.333309  0.671736  1
  O  O1  1  0.333309  0.666691  0.328264  1
  O  O2  1  0.333309  0.666691  0.171736  1
  O  O3  1  0.666691  0.333309  0.828264  1
